Version 4
SHEET 1 880 824
WIRE -608 -96 -736 -96
WIRE 448 -96 -608 -96
WIRE -608 -16 -608 -32
WIRE -608 -16 -736 -16
WIRE -608 32 -608 -16
WIRE -608 32 -736 32
WIRE 288 96 -304 96
WIRE -608 112 -608 96
WIRE -608 112 -736 112
WIRE -608 144 -608 112
WIRE -608 144 -736 144
WIRE -608 160 -608 144
WIRE -16 192 -144 192
WIRE 288 192 288 96
WIRE 288 192 -16 192
WIRE -608 224 -608 208
WIRE -608 224 -736 224
WIRE -608 256 -608 224
WIRE -608 256 -736 256
WIRE -16 272 -16 256
WIRE -16 272 -144 272
WIRE 448 288 448 -96
WIRE -16 320 -16 272
WIRE -16 320 -144 320
WIRE -608 336 -608 320
WIRE -608 336 -736 336
WIRE -608 368 -608 336
WIRE -608 368 -736 368
WIRE -16 400 -16 384
WIRE -16 400 -144 400
WIRE -16 432 -16 400
WIRE -16 432 -144 432
WIRE -608 448 -608 432
WIRE -608 448 -736 448
WIRE -304 448 -304 96
WIRE -304 448 -608 448
WIRE -16 448 -16 432
WIRE -16 512 -16 496
WIRE -16 512 -144 512
WIRE -16 544 -16 512
WIRE -16 544 -144 544
WIRE -16 624 -16 608
WIRE -16 624 -144 624
WIRE -16 656 -16 624
WIRE -16 656 -144 656
WIRE -96 736 -144 736
WIRE -16 736 -16 720
WIRE -16 736 -96 736
WIRE 448 736 448 368
WIRE 448 736 -16 736
WIRE -96 752 -96 736
FLAG -96 752 0
SYMBOL diode -624 -96 R0
SYMATTR InstName D3
SYMATTR Value DiodeSC
SYMBOL current -736 -16 R180
WINDOW 123 0 0 Left 0
WINDOW 39 0 0 Left 0
SYMATTR InstName I3
SYMATTR Value 2
SYMBOL diode -624 32 R0
SYMATTR InstName D4
SYMATTR Value DiodeSC
SYMBOL current -736 112 R180
WINDOW 123 0 0 Left 0
WINDOW 39 0 0 Left 0
SYMATTR InstName I4
SYMATTR Value 2
SYMBOL diode -624 144 R0
SYMATTR InstName D5
SYMATTR Value DiodeSC
SYMBOL current -736 224 R180
WINDOW 123 0 0 Left 0
WINDOW 39 0 0 Left 0
SYMATTR InstName I5
SYMATTR Value 2
SYMBOL diode -624 256 R0
SYMATTR InstName D6
SYMATTR Value DiodeSC
SYMBOL current -736 336 R180
WINDOW 123 0 0 Left 0
WINDOW 39 0 0 Left 0
SYMATTR InstName I6
SYMATTR Value 2
SYMBOL diode -624 368 R0
SYMATTR InstName D7
SYMATTR Value DiodeSC
SYMBOL current -736 448 R180
WINDOW 123 0 0 Left 0
WINDOW 39 0 0 Left 0
SYMATTR InstName I7
SYMATTR Value 2
SYMBOL diode -32 192 R0
SYMATTR InstName D1
SYMATTR Value DiodeSC
SYMBOL current -144 272 R180
WINDOW 123 0 0 Left 0
WINDOW 39 0 0 Left 0
SYMATTR InstName I1
SYMATTR Value 1.5
SYMBOL diode -32 320 R0
SYMATTR InstName D2
SYMATTR Value DiodeSC
SYMBOL current -144 400 R180
WINDOW 123 0 0 Left 0
WINDOW 39 0 0 Left 0
SYMATTR InstName I2
SYMATTR Value 1.5
SYMBOL diode -32 432 R0
SYMATTR InstName D8
SYMATTR Value DiodeSC
SYMBOL current -144 512 R180
WINDOW 123 0 0 Left 0
WINDOW 39 0 0 Left 0
SYMATTR InstName I8
SYMATTR Value 1.5
SYMBOL diode -32 544 R0
SYMATTR InstName D9
SYMATTR Value DiodeSC
SYMBOL current -144 624 R180
WINDOW 123 0 0 Left 0
WINDOW 39 0 0 Left 0
SYMATTR InstName I9
SYMATTR Value 1.5
SYMBOL diode -32 656 R0
SYMATTR InstName D10
SYMATTR Value DiodeSC
SYMBOL current -144 736 R180
WINDOW 123 0 0 Left 0
WINDOW 39 0 0 Left 0
SYMATTR InstName I10
SYMATTR Value 1.5
SYMBOL voltage 448 272 R0
WINDOW 123 0 0 Left 0
WINDOW 39 0 0 Left 0
SYMATTR InstName V1
SYMATTR Value 0
TEXT -680 608 Left 2 !.dc V1 0 14.6 0.2
TEXT -680 584 Left 2 !.model DiodeSC D (Is=1e-16 Rs=1m N=1.5)
