Version 4
SHEET 1 880 680
WIRE 96 128 -32 128
WIRE 208 128 96 128
WIRE 368 128 288 128
WIRE 32 208 -32 208
WIRE 96 208 96 192
WIRE 96 208 32 208
WIRE 368 208 96 208
WIRE 32 224 32 208
FLAG 32 224 0
SYMBOL diode 80 128 R0
SYMATTR InstName D1
SYMATTR Value DiodeSC
SYMBOL current -32 208 R180
WINDOW 123 0 0 Left 0
WINDOW 39 0 0 Left 0
SYMATTR InstName I1
SYMATTR Value 2
SYMBOL res 304 112 R90
WINDOW 0 0 56 VBottom 2
WINDOW 3 32 56 VTop 2
SYMATTR InstName R1
SYMATTR Value 10m
SYMBOL voltage 368 112 R0
WINDOW 123 0 0 Left 0
WINDOW 39 0 0 Left 0
SYMATTR InstName V1
SYMATTR Value 0
TEXT -114 248 Left 2 !.dc V1 0 1.48 1m
TEXT -80 328 Left 2 !.model DiodeSC D (Is=1e-16 Rs=1m N=1.5)
