Version 4
SHEET 1 880 680
WIRE 96 128 -32 128
WIRE 288 128 96 128
WIRE 368 128 288 128
WIRE 32 208 -32 208
WIRE 96 208 96 192
WIRE 96 208 32 208
WIRE 368 208 96 208
WIRE 32 224 32 208
FLAG 32 224 0
FLAG 288 128 A
SYMBOL diode 80 128 R0
SYMATTR InstName D1
SYMATTR Value DiodeSC
SYMBOL current -32 208 R180
WINDOW 123 0 0 Left 0
WINDOW 39 0 0 Left 0
SYMATTR InstName I1
SYMATTR Value 2
SYMBOL voltage 368 112 R0
WINDOW 123 0 0 Left 0
WINDOW 39 0 0 Left 0
SYMATTR InstName V1
SYMATTR Value 0
TEXT -80 296 Left 2 !.dc V1 0 1.48 1m
TEXT -80 264 Left 2 !.model DiodeSC D (Is=1e-16 Rs=1m N=1.5)
